Circuit: * H:\02. Dokumente\Technical Week 2018\FAE-Simulation-file\03. Time domain simulation\Transient_simulation_Transmission_line.asc

cat5e: using linear interpolation because trytocompact option specified
.OP point found by inspection.
Heightened Def Con from 9.11918e-006 to 9.11918e-006

Date: Thu Oct 04 16:29:13 2018
Total elapsed time: 16.036 seconds.

tnom = 27
temp = 27
method = modified trap
totiter = 28886
traniter = 28886
tranpoints = 14450
accept = 11527
rejected = 2924
matrix size = 319
fillins = 130
solver = Normal
Thread vector: 110.2/71.7[3] 22.7/12.1[3] 0.7/1.0[1] 3.8/6.0[1]  2592/500
Matrix Compiler1: 51.29 KB object code size  17.2/7.4/[4.9]
Matrix Compiler2: 54.62 KB object code size  5.2/6.8/[2.9]

